FoamFile
{
    version     2.0;
    format      ascii;
    class       dictionary;
    object      decomposeParDict;
}

numberOfSubdomains 8; // <--- CHANGE THIS to your core count

method          scotch; // "scotch" automatically balances the load