FoamFile
{
    version     2.0;
    format      ascii;
    class       dictionary;
    location    "system";
    object      fvSchemes;
}

ddtSchemes
{
    default         steadyState;
}

gradSchemes
{
    // Limit gradients for robustness on snappy meshes
    default         cellLimited Gauss linear 1;
    grad(U)         cellLimited Gauss linear 1;
}

divSchemes
{
    default                         none;
    // More diffusive but much more stable on poor-quality cells
    div(phi,U)                      bounded Gauss upwind;
    div(phi,k)                      bounded Gauss upwind;
    div(phi,epsilon)                bounded Gauss upwind;
    div((nuEff*dev2(T(grad(U)))))   Gauss linear;
}

laplacianSchemes
{
    // Limit non-orthogonal correction to reduce instability
    default         Gauss linear limited 0.33;
}

interpolationSchemes
{
    default         linear;
}

snGradSchemes
{
    default         limited 0.33;
}

fluxRequired
{
    default         no;
    p;
}
