FoamFile
{
    version     2.0;
    format      ascii;
    class       dictionary;
    location    "constant";
    object      transportProperties;
}

transportModel  Newtonian;

// nu = kinematic viscosity
// [0 2 -1 0 0 0 0] corresponds to units m^2/s
nu              [0 2 -1 0 0 0 0] 1.5e-05;
