FoamFile
{
    version     2.0;
    format      ascii;
    class       dictionary;
    location    "constant";
    object      turbulenceProperties;
}

simulationType  RAS;

RAS
{
    // The specific model to use
    model           kEpsilon;

    // Turn turbulence on? Yes.
    turbulence      on;

    // Print details to the console?
    printCoeffs     on;
}
