FoamFile
{
    version     2.0;
    format      ascii;
    class       volScalarField;
    object      epsilon;
}

dimensions      [0 2 -3 0 0 0 0];

internalField   uniform 0.034; // Your calculated epsilon

boundaryField
{
    minX // Inlet
    {
        type            fixedValue;
        value           uniform 0.034;
    }
    maxX
    {
        type            inletOutlet;
        inletValue      uniform 0.034;
        value           uniform 0.034;
    }
    ground
    {
        type            epsilonWallFunction;
        value           uniform 0.034;
    }
    buildings
    {
        type            epsilonWallFunction;
        value           uniform 0.034;
    }
    top
    {
        type            zeroGradient;
    }
    sides
    {
        type            zeroGradient;
    }
}
