FoamFile
{
    version     2.0;
    format      ascii;
    class       volScalarField;
    object      nut;
}

dimensions      [0 2 -1 0 0 0 0];

internalField   uniform 0;

boundaryField
{
    minX
    {
        type            calculated;
        value           uniform 0;
    }
    maxX
    {
        type            calculated;
        value           uniform 0;
    }
    ground
    {
        // Special wall function for Atmospheric roughness
        type            nutkAtmRoughWallFunction; 
        z0              uniform 0.5; // Must match the U file z0
        value           uniform 0;
    }
    buildings
    {
        type            nutkWallFunction; // Standard wall function for buildings
        value           uniform 0;
    }
    top
    {
        type            calculated;
        value           uniform 0;
    }
    sides
    {
        type            calculated;
        value           uniform 0;
    }
}
