/*--------------------------------*- C++ -*----------------------------------*\
| =========                 |                                                 |
| \\      /  F ield         | OpenFOAM: The Open Source CFD Toolbox           |
|  \\    /   O peration     | Version:  v2012+                                |
|   \\  /    A nd           | Website:  www.openfoam.com                      |
|    \\/     M anipulation  |                                                 |
\*---------------------------------------------------------------------------*/
FoamFile
{
    version     2.0;
    format      ascii;
    class       volVectorField;
    object      U;
}
// * * * * * * * * * * * * * * * * * * * * * * * * * * * * * * * * * * * * * //

dimensions      [0 1 -1 0 0 0 0]; // m/s

internalField   uniform (10 0 0); // Initial guess: 10 m/s in X direction

boundaryField
{
    // minX is the inlet in blockMeshDict
    minX
    {
        type            fixedValue;
        value           uniform (10 0 0); // Simple uniform inlet velocity
    }

    // maxX is the outlet in blockMeshDict
    maxX
    {
        type            inletOutlet; // Allows backflow if necessary, but treats as zeroGradient mostly
        inletValue      uniform (0 0 0);
        value           uniform (0 0 0);
    }

    // The GROUND and BUILDINGS
    ground
    {
        type            noSlip; // Air sticks to the ground
    }
    
    buildings
    {
        type            noSlip;
    }

    // TOP and SIDES of the domain
    top
    {
        type            slip; // Air slides along this wall (no friction)
    }
    sides
    {
        type            slip;
    }
}
